<?xml version="1.0" encoding="UTF-8"?>

<!-- generated on 2022-07-15 18:46:42 by Eclipse SUMO netedit Version 1.13.0
<configuration xmlns:xsi="http://www.w3.org/2001/XMLSchema-instance" xsi:noNamespaceSchemaLocation="http://sumo.dlr.de/xsd/netconvertConfiguration.xsd">

    <input>
        <sumo-net-file value="/mnt/hgfs/SUMO/inter1/inter1.net.xml"/>
    </input>

    <output>
        <output-file value="/mnt/hgfs/SUMO/inter1/inter1.net.xml"/>
    </output>

    <processing>
        <geometry.min-radius.fix.railways value="false"/>
        <geometry.max-grade.fix value="false"/>
        <offset.disable-normalization value="true"/>
        <lefthand value="false"/>
    </processing>

    <junctions>
        <no-turnarounds value="true"/>
        <junctions.corner-detail value="5"/>
        <junctions.limit-turn-speed value="5.5"/>
        <rectangular-lane-cut value="false"/>
    </junctions>

    <pedestrian>
        <walkingareas value="false"/>
    </pedestrian>

    <netedit>
        <route-files value="/mnt/hgfs/SUMO/inter1/inter1.rou.rou.xml"/>
    </netedit>

    <report>
        <aggregate-warnings value="5"/>
    </report>

</configuration>
-->

<net version="1.9" junctionCornerDetail="5" limitTurnSpeed="5.50" xmlns:xsi="http://www.w3.org/2001/XMLSchema-instance" xsi:noNamespaceSchemaLocation="http://sumo.dlr.de/xsd/net_file.xsd">

    <location netOffset="0.00,0.00" convBoundary="-500.00,-500.00,500.00,500.00" origBoundary="-10000000000.00,-10000000000.00,10000000000.00,10000000000.00" projParameter="!"/>

    <edge id=":0_0" function="internal">
        <lane id=":0_0_0" index="0" speed="6.51" length="9.03" shape="-1.60,7.20 -1.95,4.75 -3.00,3.00 -4.75,1.95 -7.20,1.60"/>
    </edge>
    <edge id=":0_1" function="internal">
        <lane id=":0_1_0" index="0" speed="13.89" length="14.40" shape="-1.60,7.20 -1.60,-7.20"/>
    </edge>
    <edge id=":0_2" function="internal">
        <lane id=":0_2_0" index="0" speed="8.00" length="4.07" shape="-1.60,7.20 -1.05,3.35 -0.96,3.20"/>
    </edge>
    <edge id=":0_12" function="internal">
        <lane id=":0_12_0" index="0" speed="8.00" length="10.13" shape="-0.96,3.20 0.60,0.60 3.35,-1.05 7.20,-1.60"/>
    </edge>
    <edge id=":0_3" function="internal">
        <lane id=":0_3_0" index="0" speed="6.51" length="9.03" shape="7.20,1.60 4.75,1.95 3.00,3.00 1.95,4.75 1.60,7.20"/>
    </edge>
    <edge id=":0_4" function="internal">
        <lane id=":0_4_0" index="0" speed="13.89" length="14.40" shape="7.20,1.60 -7.20,1.60"/>
    </edge>
    <edge id=":0_5" function="internal">
        <lane id=":0_5_0" index="0" speed="8.00" length="4.07" shape="7.20,1.60 3.35,1.05 3.20,0.96"/>
    </edge>
    <edge id=":0_13" function="internal">
        <lane id=":0_13_0" index="0" speed="8.00" length="10.13" shape="3.20,0.96 0.60,-0.60 -1.05,-3.35 -1.60,-7.20"/>
    </edge>
    <edge id=":0_6" function="internal">
        <lane id=":0_6_0" index="0" speed="6.51" length="9.03" shape="1.60,-7.20 1.95,-4.75 3.00,-3.00 4.75,-1.95 7.20,-1.60"/>
    </edge>
    <edge id=":0_7" function="internal">
        <lane id=":0_7_0" index="0" speed="13.89" length="14.40" shape="1.60,-7.20 1.60,7.20"/>
    </edge>
    <edge id=":0_8" function="internal">
        <lane id=":0_8_0" index="0" speed="8.00" length="4.07" shape="1.60,-7.20 1.05,-3.35 0.96,-3.20"/>
    </edge>
    <edge id=":0_14" function="internal">
        <lane id=":0_14_0" index="0" speed="8.00" length="10.13" shape="0.96,-3.20 -0.60,-0.60 -3.35,1.05 -7.20,1.60"/>
    </edge>
    <edge id=":0_9" function="internal">
        <lane id=":0_9_0" index="0" speed="6.51" length="9.03" shape="-7.20,-1.60 -4.75,-1.95 -3.00,-3.00 -1.95,-4.75 -1.60,-7.20"/>
    </edge>
    <edge id=":0_10" function="internal">
        <lane id=":0_10_0" index="0" speed="13.89" length="14.40" shape="-7.20,-1.60 7.20,-1.60"/>
    </edge>
    <edge id=":0_11" function="internal">
        <lane id=":0_11_0" index="0" speed="8.00" length="4.07" shape="-7.20,-1.60 -3.35,-1.05 -3.20,-0.96"/>
    </edge>
    <edge id=":0_15" function="internal">
        <lane id=":0_15_0" index="0" speed="8.00" length="10.13" shape="-3.20,-0.96 -0.60,0.60 1.05,3.35 1.60,7.20"/>
    </edge>

    <edge id="0to1" from="0" to="1" priority="-1">
        <lane id="0to1_0" index="0" speed="13.89" length="492.80" shape="-7.20,1.60 -500.00,1.60"/>
    </edge>
    <edge id="0to2" from="0" to="2" priority="-1">
        <lane id="0to2_0" index="0" speed="13.89" length="492.80" shape="1.60,7.20 1.60,500.00"/>
    </edge>
    <edge id="0to3" from="0" to="3" priority="-1">
        <lane id="0to3_0" index="0" speed="13.89" length="492.80" shape="7.20,-1.60 500.00,-1.60"/>
    </edge>
    <edge id="0to4" from="0" to="4" priority="-1">
        <lane id="0to4_0" index="0" speed="13.89" length="492.80" shape="-1.60,-7.20 -1.60,-500.00"/>
    </edge>
    <edge id="1to0" from="1" to="0" priority="-1">
        <lane id="1to0_0" index="0" speed="13.89" length="492.80" shape="-500.00,-1.60 -7.20,-1.60"/>
    </edge>
    <edge id="2to0" from="2" to="0" priority="-1">
        <lane id="2to0_0" index="0" speed="13.89" length="492.80" shape="-1.60,500.00 -1.60,7.20"/>
    </edge>
    <edge id="3to0" from="3" to="0" priority="-1">
        <lane id="3to0_0" index="0" speed="13.89" length="492.80" shape="500.00,1.60 7.20,1.60"/>
    </edge>
    <edge id="4to0" from="4" to="0" priority="-1">
        <lane id="4to0_0" index="0" speed="13.89" length="492.80" shape="1.60,-500.00 1.60,-7.20"/>
    </edge>

    <tlLogic id="0" type="static" programID="0" offset="0">
        <phase duration="42" state="GGgrrrGGgrrr"/>
        <phase duration="3"  state="yyyrrryyyrrr"/>
        <phase duration="42" state="rrrGGgrrrGGg"/>
        <phase duration="3"  state="rrryyyrrryyy"/>
    </tlLogic>

    <junction id="0" type="traffic_light" x="0.00" y="0.00" incLanes="2to0_0 3to0_0 4to0_0 1to0_0" intLanes=":0_0_0 :0_1_0 :0_12_0 :0_3_0 :0_4_0 :0_13_0 :0_6_0 :0_7_0 :0_14_0 :0_9_0 :0_10_0 :0_15_0" shape="-3.20,7.20 3.20,7.20 3.64,4.98 4.20,4.20 4.98,3.64 5.98,3.31 7.20,3.20 7.20,-3.20 4.98,-3.64 4.20,-4.20 3.64,-4.98 3.31,-5.98 3.20,-7.20 -3.20,-7.20 -3.64,-4.98 -4.20,-4.20 -4.98,-3.64 -5.98,-3.31 -7.20,-3.20 -7.20,3.20 -4.98,3.64 -4.20,4.20 -3.64,4.98 -3.31,5.98">
        <request index="0"  response="000000000000" foes="000100010000" cont="0"/>
        <request index="1"  response="100000100000" foes="111100110000" cont="0"/>
        <request index="2"  response="100111100000" foes="110111110000" cont="1"/>
        <request index="3"  response="000010000000" foes="100010000000" cont="0"/>
        <request index="4"  response="000110000111" foes="100110000111" cont="0"/>
        <request index="5"  response="011110000110" foes="111110000110" cont="1"/>
        <request index="6"  response="000000000000" foes="010000000100" cont="0"/>
        <request index="7"  response="100000100000" foes="110000111100" cont="0"/>
        <request index="8"  response="100000100011" foes="110000110111" cont="1"/>
        <request index="9"  response="000000000010" foes="000000100010" cont="0"/>
        <request index="10" response="000111000110" foes="000111100110" cont="0"/>
        <request index="11" response="000110111110" foes="000110111110" cont="1"/>
    </junction>
    <junction id="1" type="dead_end" x="-500.00" y="0.00" incLanes="0to1_0" intLanes="" shape="-500.00,0.00 -500.00,3.20 -500.00,0.00"/>
    <junction id="2" type="dead_end" x="0.00" y="500.00" incLanes="0to2_0" intLanes="" shape="0.00,500.00 3.20,500.00 0.00,500.00"/>
    <junction id="3" type="dead_end" x="500.00" y="0.00" incLanes="0to3_0" intLanes="" shape="500.00,0.00 500.00,-3.20 500.00,0.00"/>
    <junction id="4" type="dead_end" x="0.00" y="-500.00" incLanes="0to4_0" intLanes="" shape="0.00,-500.00 -3.20,-500.00 0.00,-500.00"/>

    <junction id=":0_12_0" type="internal" x="-0.96" y="3.20" incLanes=":0_2_0 4to0_0" intLanes=":0_4_0 :0_5_0 :0_6_0 :0_7_0 :0_10_0 :0_11_0"/>
    <junction id=":0_13_0" type="internal" x="3.20" y="0.96" incLanes=":0_5_0 1to0_0" intLanes=":0_1_0 :0_2_0 :0_7_0 :0_8_0 :0_9_0 :0_10_0"/>
    <junction id=":0_14_0" type="internal" x="0.96" y="-3.20" incLanes=":0_8_0 2to0_0" intLanes=":0_0_0 :0_1_0 :0_4_0 :0_5_0 :0_10_0 :0_11_0"/>
    <junction id=":0_15_0" type="internal" x="-3.20" y="-0.96" incLanes=":0_11_0 3to0_0" intLanes=":0_1_0 :0_2_0 :0_3_0 :0_4_0 :0_7_0 :0_8_0"/>

    <connection from="1to0" to="0to4" fromLane="0" toLane="0" via=":0_9_0" tl="0" linkIndex="9" dir="r" state="o"/>
    <connection from="1to0" to="0to3" fromLane="0" toLane="0" via=":0_10_0" tl="0" linkIndex="10" dir="s" state="o"/>
    <connection from="1to0" to="0to2" fromLane="0" toLane="0" via=":0_11_0" tl="0" linkIndex="11" dir="l" state="o"/>
    <connection from="2to0" to="0to1" fromLane="0" toLane="0" via=":0_0_0" tl="0" linkIndex="0" dir="r" state="O"/>
    <connection from="2to0" to="0to4" fromLane="0" toLane="0" via=":0_1_0" tl="0" linkIndex="1" dir="s" state="O"/>
    <connection from="2to0" to="0to3" fromLane="0" toLane="0" via=":0_2_0" tl="0" linkIndex="2" dir="l" state="o"/>
    <connection from="3to0" to="0to2" fromLane="0" toLane="0" via=":0_3_0" tl="0" linkIndex="3" dir="r" state="o"/>
    <connection from="3to0" to="0to1" fromLane="0" toLane="0" via=":0_4_0" tl="0" linkIndex="4" dir="s" state="o"/>
    <connection from="3to0" to="0to4" fromLane="0" toLane="0" via=":0_5_0" tl="0" linkIndex="5" dir="l" state="o"/>
    <connection from="4to0" to="0to3" fromLane="0" toLane="0" via=":0_6_0" tl="0" linkIndex="6" dir="r" state="O"/>
    <connection from="4to0" to="0to2" fromLane="0" toLane="0" via=":0_7_0" tl="0" linkIndex="7" dir="s" state="O"/>
    <connection from="4to0" to="0to1" fromLane="0" toLane="0" via=":0_8_0" tl="0" linkIndex="8" dir="l" state="o"/>

    <connection from=":0_0" to="0to1" fromLane="0" toLane="0" dir="r" state="M"/>
    <connection from=":0_1" to="0to4" fromLane="0" toLane="0" dir="s" state="M"/>
    <connection from=":0_2" to="0to3" fromLane="0" toLane="0" via=":0_12_0" dir="l" state="m"/>
    <connection from=":0_12" to="0to3" fromLane="0" toLane="0" dir="l" state="M"/>
    <connection from=":0_3" to="0to2" fromLane="0" toLane="0" dir="r" state="M"/>
    <connection from=":0_4" to="0to1" fromLane="0" toLane="0" dir="s" state="M"/>
    <connection from=":0_5" to="0to4" fromLane="0" toLane="0" via=":0_13_0" dir="l" state="m"/>
    <connection from=":0_13" to="0to4" fromLane="0" toLane="0" dir="l" state="M"/>
    <connection from=":0_6" to="0to3" fromLane="0" toLane="0" dir="r" state="M"/>
    <connection from=":0_7" to="0to2" fromLane="0" toLane="0" dir="s" state="M"/>
    <connection from=":0_8" to="0to1" fromLane="0" toLane="0" via=":0_14_0" dir="l" state="m"/>
    <connection from=":0_14" to="0to1" fromLane="0" toLane="0" dir="l" state="M"/>
    <connection from=":0_9" to="0to4" fromLane="0" toLane="0" dir="r" state="M"/>
    <connection from=":0_10" to="0to3" fromLane="0" toLane="0" dir="s" state="M"/>
    <connection from=":0_11" to="0to2" fromLane="0" toLane="0" via=":0_15_0" dir="l" state="m"/>
    <connection from=":0_15" to="0to2" fromLane="0" toLane="0" dir="l" state="M"/>

</net>
