<?xml version="1.0" encoding="UTF-8"?>

<!-- generated on 2022-07-15 18:45:24 by Eclipse SUMO netedit Version 1.13.0
-->

<routes xmlns:xsi="http://www.w3.org/2001/XMLSchema-instance" xsi:noNamespaceSchemaLocation="http://sumo.dlr.de/xsd/routes_file.xsd">
    <!-- Routes -->
    <routeDistribution id="routedist0">
        <route id="r_0a" edges="1to0 0to3"/>
        <route id="r_0b" edges="1to0 0to2"/>
        <route id="r_0c" edges="1to0 0to4"/>
    </routeDistribution>

    <routeDistribution id="routedist1">
        <route id="r_1a" edges="2to0 0to4"/>
        <route id="r_1b" edges="2to0 0to1"/>
        <route id="r_1c" edges="2to0 0to3"/>
    </routeDistribution>

    <routeDistribution id="routedist2">
        <route id="r_2a" edges="3to0 0to1"/>
        <route id="r_2b" edges="3to0 0to2"/>
        <route id="r_2c" edges="3to0 0to4"/>
    </routeDistribution>

    <routeDistribution id="routedist3">
        <route id="r_3a" edges="4to0 0to2"/>
        <route id="r_3b" edges="4to0 0to3"/>
        <route id="r_3c" edges="4to0 0to1"/>
    </routeDistribution>

     <!-- Vehicles, persons and containers (sorted by depart) -->
    <vTypeDistribution id="default">
        <vType id="car1" vClass="passenger" length="5" accel="3.5" decel="2.2" sigma="1.0" maxSpeed="10" color="#00B9FF"/>
        <vType id="car2" vClass="passenger" length="3" accel="2.5" decel="1.6" sigma="1.0" maxSpeed="10" color="#7BFF83"/>
        <vType id="car3" vClass="passenger" length="7" accel="4.0" decel="2.2" sigma="1.0" maxSpeed="10" color="#FFB9D5"/>
        <vType id="ev" vClass="emergency" length="7" accel="5.5" decel="2.2" sigma="1.0" maxSpeed="20" guiShape="emergency" speedFactor="2.0" minGapLat="0.2"/>
    </vTypeDistribution>

    <flow id="flow0" type="default" begin="0.00" end="25.00" route="routedist0" number="15"/>
    <flow id="flow1" type="default" begin="0.00" end="25.00" route="routedist1" number="15"/>
    <flow id="flow2" type="default" begin="0.00" end="25.00" route="routedist2" number="15"/>
    <flow id="flow3" type="default" begin="0.00" end="25.00" route="routedist3" number="15"/>
</routes>
