<?xml version="1.0" encoding="UTF-8"?>

<!-- generated on 2022-06-22 19:56:48 by Eclipse SUMO netedit Version 1.13.0
-->

<routes xmlns:xsi="http://www.w3.org/2001/XMLSchema-instance" xsi:noNamespaceSchemaLocation="http://sumo.dlr.de/xsd/routes_file.xsd">
    <!-- Routes -->
    <route id="r_0" edges="1to2 out"/>
    
    <!-- Vehicles, persons and containers (sorted by depart) -->
    <vType id="type1" accel="150" decel="350" maxSpeed="400" minGap="0" color="1,0,0"/>
    <vType id="type2" accel="200" maxSpeed="500" minGap="0" color="0,1,0"/>
    <vType id="type3" accel="200" maxSpeed="500" minGap="2" color="0,0,1"/>
    
    <vehicle id="v_0" type="type1" depart="0.00" route="r_0">
        <stop lane="out_0" endPos="5" until="40"/>
    </vehicle>
    <vehicle id="v_1" type="type2" depart="0.00" route="r_0"/>
    <vehicle id="v_2" type="type3" depart="0.00" route="r_0"/>

</routes>
